Version 4
SHEET 1 880 680
WIRE 0 -176 -144 -176
WIRE 128 -176 80 -176
WIRE 272 -176 208 -176
WIRE 80 -112 80 -176
WIRE 208 -48 208 -176
WIRE 240 -48 208 -48
WIRE 352 -32 352 -176
WIRE 352 -32 304 -32
WIRE 432 -32 352 -32
WIRE 240 -16 224 -16
WIRE -320 48 -384 48
WIRE -144 48 -144 -176
WIRE -144 48 -240 48
WIRE -80 48 -144 48
WIRE 80 64 80 -48
WIRE 80 64 -16 64
WIRE -80 80 -96 80
WIRE 80 112 80 64
WIRE 80 224 80 176
WIRE 224 224 224 -16
WIRE 224 224 80 224
WIRE -144 240 -144 48
WIRE 0 240 -144 240
WIRE 80 240 80 224
FLAG 320 144 0
FLAG 464 64 0
FLAG -384 128 0
FLAG -96 80 0
FLAG 432 -32 vout
IOPIN 432 -32 Out
FLAG 320 64 V+
IOPIN 320 64 In
FLAG 464 144 V-
IOPIN 464 144 In
FLAG 272 -64 V+
IOPIN 272 -64 In
FLAG -48 32 V+
IOPIN -48 32 In
FLAG 272 0 V-
IOPIN 272 0 In
FLAG -48 96 V-
IOPIN -48 96 In
SYMBOL OpAmps\\opamp2 -48 0 R0
WINDOW 3 12 6 Left 2
SYMATTR Value LM741/NS
SYMATTR InstName U1
SYMBOL voltage 320 48 R0
WINDOW 123 0 0 Left 0
WINDOW 39 0 0 Left 0
SYMATTR InstName V1
SYMATTR Value 12
SYMBOL voltage 464 160 R180
WINDOW 0 24 96 Left 2
WINDOW 3 24 16 Left 2
WINDOW 123 0 0 Left 0
WINDOW 39 0 0 Left 0
SYMATTR InstName V2
SYMATTR Value -12
SYMBOL voltage -384 32 R0
WINDOW 123 24 124 Left 2
WINDOW 39 0 0 Left 0
SYMATTR Value2 AC 1
SYMATTR InstName V3
SYMATTR Value SINE(0 1 1k)
SYMBOL diode 64 -112 R0
SYMATTR InstName D1
SYMATTR Value 1N4148
SYMBOL res 224 -192 R90
WINDOW 0 0 56 VBottom 2
WINDOW 3 32 45 VTop 2
SYMATTR InstName R1
SYMATTR Value 1k
SYMBOL OpAmps\\opamp2 272 -96 R0
WINDOW 3 12 6 Left 2
SYMATTR Value LM741/NS
SYMATTR InstName U2
SYMBOL diode 64 112 R0
SYMATTR InstName D2
SYMATTR Value 1N4148
SYMBOL res 96 224 R90
WINDOW 0 0 56 VBottom 2
WINDOW 3 32 56 VTop 2
SYMATTR InstName R2
SYMATTR Value 1k
SYMBOL res 96 -192 R90
WINDOW 0 0 56 VBottom 2
WINDOW 3 32 56 VTop 2
SYMATTR InstName R3
SYMATTR Value 1k
SYMBOL res 368 -192 R90
WINDOW 0 0 56 VBottom 2
WINDOW 3 32 56 VTop 2
SYMATTR InstName R4
SYMATTR Value 1k
SYMBOL res -224 32 R90
WINDOW 0 0 56 VBottom 2
WINDOW 3 32 56 VTop 2
SYMATTR InstName R5
SYMATTR Value 1k
TEXT -512 504 Left 2 !.include C:\\Users\\PRANAV ARYA\\Documents\\GitHub\\ECN351-Lab\\LM741.MOD
TEXT -208 456 Left 2 !.tran 20m
